MODEL 1
REMARK VINA RESULT:      -7.9      0.000      0.000
REMARK  Name = CHEMBL144760
REMARK  17 active torsions:
REMARK  status: ('A' for Active; 'I' for Inactive)
REMARK    1  A    between atoms: C2_2  and  C7_9
REMARK    2  A    between atoms: C4_4  and  O2_8
REMARK    3  A    between atoms: C5_5  and  O1_7
REMARK    4  A    between atoms: C8_10  and  C9_11
REMARK    5  A    between atoms: C8_10  and  C26_35
REMARK    6  A    between atoms: N1_13  and  C10_14
REMARK    7  A    between atoms: C10_14  and  C11_15
REMARK    8  A    between atoms: C11_15  and  C12_16
REMARK    9  A    between atoms: C12_16  and  C13_17
REMARK   10  A    between atoms: C13_17  and  C14_18
REMARK   11  A    between atoms: C14_18  and  C15_19
REMARK   12  A    between atoms: C15_19  and  N2_20
REMARK   13  A    between atoms: C16_21  and  C17_23
REMARK   14  A    between atoms: C17_23  and  C25_33
REMARK   15  A    between atoms: C18_24  and  C19_25
REMARK   16  A    between atoms: C21_27  and  O6_32
REMARK   17  A    between atoms: C22_28  and  O5_31
REMARK                            x       y       z     vdW  Elec       q    Type
REMARK                         _______ _______ _______ _____ _____    ______ ____
ROOT
ATOM      1  C   UNL     1     -10.345  16.151  32.041  0.00  0.00    +0.021 C 
ENDROOT
BRANCH   1   2
ATOM      2  C   UNL     1     -11.798  16.470  31.682  0.00  0.00    +0.021 C 
BRANCH   2   3
ATOM      3  C   UNL     1     -12.622  16.601  32.965  0.00  0.00    +0.008 C 
BRANCH   3   4
ATOM      4  C   UNL     1     -12.933  18.077  33.221  0.00  0.00    +0.265 C 
BRANCH   4   5
ATOM      5  N   UNL     1     -13.255  18.735  31.952  0.00  0.00    -0.725 N 
ATOM      6  H   UNL     1     -12.904  18.381  31.119  0.00  0.00    +0.401 HD
ATOM      7  C   UNL     1     -14.038  19.831  31.941  0.00  0.00    +0.575 C 
ATOM      8  O   UNL     1     -14.479  20.274  32.985  0.00  0.00    -0.526 OA
BRANCH   7   9
ATOM      9  C   UNL     1     -14.362  20.492  30.667  0.00  0.00    -0.129 C 
ATOM     10  C   UNL     1     -13.566  21.515  30.199  0.00  0.00    +0.244 C 
BRANCH  10  11
ATOM     11  C   UNL     1     -13.970  22.273  29.014  0.00  0.00    -0.101 A 
ATOM     12  C   UNL     1     -14.753  23.429  29.150  0.00  0.00    +0.033 A 
ATOM     13  C   UNL     1     -15.130  24.139  28.029  0.00  0.00    +0.081 A 
ATOM     14  C   UNL     1     -14.734  23.706  26.762  0.00  0.00    +0.109 A 
ATOM     15  C   UNL     1     -13.959  22.561  26.625  0.00  0.00    +0.009 A 
ATOM     16  C   UNL     1     -13.572  21.849  27.739  0.00  0.00    +0.077 A 
BRANCH  14  17
ATOM     17  O   UNL     1     -15.106  24.406  25.661  0.00  0.00    -0.485 OA
ATOM     18  H   UNL     1     -14.498  25.120  25.424  0.00  0.00    +0.394 HD
ENDBRANCH  14  17
BRANCH  13  19
ATOM     19  O   UNL     1     -15.888  25.260  28.158  0.00  0.00    -0.482 OA
ATOM     20  H   UNL     1     -15.614  25.988  27.585  0.00  0.00    +0.390 HD
ENDBRANCH  13  19
ENDBRANCH  10  11
BRANCH   9  21
ATOM     21  C   UNL     1     -15.504  20.071  29.912  0.00  0.00    +0.238 C 
ATOM     22  N   UNL     1     -16.410  19.736  29.314  0.00  0.00    -0.395 NA
ENDBRANCH   9  21
ENDBRANCH   7   9
ENDBRANCH   4   5
ENDBRANCH   3   4
ENDBRANCH   2   3
ENDBRANCH   1   2
BRANCH   1  23
ATOM     23  C   UNL     1      -9.567  17.456  32.223  0.00  0.00    +0.008 C 
BRANCH  23  24
ATOM     24  C   UNL     1      -8.425  17.515  31.206  0.00  0.00    +0.265 C 
BRANCH  24  26
ATOM     25  C   UNL     1      -9.027  19.262  29.617  0.00  0.00    +0.575 C 
ATOM     26  N   UNL     1      -8.303  18.880  30.687  0.00  0.00    -0.725 N 
ATOM     27  H   UNL     1      -7.700  19.508  31.115  0.00  0.00    +0.401 HD
ATOM     28  O   UNL     1      -9.783  18.472  29.082  0.00  0.00    -0.527 OA
BRANCH  25  30
ATOM     29  C   UNL     1      -9.914  21.169  28.328  0.00  0.00    +0.244 C 
ATOM     30  C   UNL     1      -8.905  20.633  29.097  0.00  0.00    -0.129 C 
BRANCH  29  32
ATOM     31  C   UNL     1      -9.010  22.576  26.490  0.00  0.00    +0.077 A 
ATOM     32  C   UNL     1      -9.731  22.474  27.689  0.00  0.00    -0.101 A 
ATOM     33  C   UNL     1     -10.276  23.627  28.272  0.00  0.00    +0.033 A 
ATOM     34  C   UNL     1     -10.100  24.853  27.665  0.00  0.00    +0.081 A 
ATOM     35  C   UNL     1      -9.382  24.945  26.472  0.00  0.00    +0.109 A 
ATOM     36  C   UNL     1      -8.841  23.804  25.892  0.00  0.00    +0.009 A 
BRANCH  35  37
ATOM     37  O   UNL     1      -9.210  26.153  25.876  0.00  0.00    -0.485 OA
ATOM     38  H   UNL     1      -8.291  26.353  25.651  0.00  0.00    +0.394 HD
ENDBRANCH  35  37
BRANCH  34  39
ATOM     39  O   UNL     1     -10.629  25.972  28.227  0.00  0.00    -0.483 OA
ATOM     40  H   UNL     1     -11.494  26.220  27.871  0.00  0.00    +0.390 HD
ENDBRANCH  34  39
ENDBRANCH  29  32
BRANCH  30  41
ATOM     41  C   UNL     1      -7.737  21.408  29.390  0.00  0.00    +0.238 C 
ATOM     42  N   UNL     1      -6.812  22.024  29.622  0.00  0.00    -0.395 NA
ENDBRANCH  30  41
ENDBRANCH  25  30
ENDBRANCH  24  26
ENDBRANCH  23  24
ENDBRANCH   1  23
TORSDOF 17
ENDMDL
MODEL 2
REMARK VINA RESULT:      -7.7      1.650      5.666
REMARK  Name = CHEMBL144760
REMARK  17 active torsions:
REMARK  status: ('A' for Active; 'I' for Inactive)
REMARK    1  A    between atoms: C2_2  and  C7_9
REMARK    2  A    between atoms: C4_4  and  O2_8
REMARK    3  A    between atoms: C5_5  and  O1_7
REMARK    4  A    between atoms: C8_10  and  C9_11
REMARK    5  A    between atoms: C8_10  and  C26_35
REMARK    6  A    between atoms: N1_13  and  C10_14
REMARK    7  A    between atoms: C10_14  and  C11_15
REMARK    8  A    between atoms: C11_15  and  C12_16
REMARK    9  A    between atoms: C12_16  and  C13_17
REMARK   10  A    between atoms: C13_17  and  C14_18
REMARK   11  A    between atoms: C14_18  and  C15_19
REMARK   12  A    between atoms: C15_19  and  N2_20
REMARK   13  A    between atoms: C16_21  and  C17_23
REMARK   14  A    between atoms: C17_23  and  C25_33
REMARK   15  A    between atoms: C18_24  and  C19_25
REMARK   16  A    between atoms: C21_27  and  O6_32
REMARK   17  A    between atoms: C22_28  and  O5_31
REMARK                            x       y       z     vdW  Elec       q    Type
REMARK                         _______ _______ _______ _____ _____    ______ ____
ROOT
ATOM      1  C   UNL     1     -12.858  14.761  32.792  0.00  0.00    +0.021 C 
ENDROOT
BRANCH   1   2
ATOM      2  C   UNL     1     -11.461  15.069  32.247  0.00  0.00    +0.021 C 
BRANCH   2   3
ATOM      3  C   UNL     1     -11.401  16.530  31.795  0.00  0.00    +0.008 C 
BRANCH   3   4
ATOM      4  C   UNL     1      -9.943  16.989  31.752  0.00  0.00    +0.265 C 
BRANCH   4   5
ATOM      5  N   UNL     1      -9.839  18.209  30.945  0.00  0.00    -0.725 N 
ATOM      6  H   UNL     1     -10.638  18.614  30.573  0.00  0.00    +0.401 HD
ATOM      7  C   UNL     1      -8.634  18.767  30.720  0.00  0.00    +0.575 C 
ATOM      8  O   UNL     1      -7.631  18.260  31.187  0.00  0.00    -0.526 OA
BRANCH   7   9
ATOM      9  C   UNL     1      -8.530  19.992  29.911  0.00  0.00    -0.129 C 
ATOM     10  C   UNL     1      -9.621  20.444  29.201  0.00  0.00    +0.244 C 
BRANCH  10  11
ATOM     11  C   UNL     1      -9.478  21.571  28.278  0.00  0.00    -0.101 A 
ATOM     12  C   UNL     1      -9.746  22.877  28.715  0.00  0.00    +0.033 A 
ATOM     13  C   UNL     1      -9.610  23.935  27.841  0.00  0.00    +0.081 A 
ATOM     14  C   UNL     1      -9.207  23.706  26.524  0.00  0.00    +0.109 A 
ATOM     15  C   UNL     1      -8.941  22.413  26.089  0.00  0.00    +0.009 A 
ATOM     16  C   UNL     1      -9.069  21.351  26.956  0.00  0.00    +0.077 A 
BRANCH  14  17
ATOM     17  O   UNL     1      -9.073  24.749  25.666  0.00  0.00    -0.485 OA
ATOM     18  H   UNL     1      -8.157  24.947  25.426  0.00  0.00    +0.394 HD
ENDBRANCH  14  17
BRANCH  13  19
ATOM     19  O   UNL     1      -9.869  25.202  28.262  0.00  0.00    -0.482 OA
ATOM     20  H   UNL     1     -10.692  25.570  27.915  0.00  0.00    +0.390 HD
ENDBRANCH  13  19
ENDBRANCH  10  11
BRANCH   9  21
ATOM     21  C   UNL     1      -7.295  20.715  29.863  0.00  0.00    +0.238 C 
ATOM     22  N   UNL     1      -6.315  21.290  29.825  0.00  0.00    -0.395 NA
ENDBRANCH   9  21
ENDBRANCH   7   9
ENDBRANCH   4   5
ENDBRANCH   3   4
ENDBRANCH   2   3
ENDBRANCH   1   2
BRANCH   1  23
ATOM     23  C   UNL     1     -13.299  15.887  33.729  0.00  0.00    +0.008 C 
BRANCH  23  24
ATOM     24  C   UNL     1     -14.685  16.385  33.311  0.00  0.00    +0.265 C 
BRANCH  24  26
ATOM     25  C   UNL     1     -14.848  17.606  31.209  0.00  0.00    +0.575 C 
ATOM     26  N   UNL     1     -14.545  17.612  32.522  0.00  0.00    -0.725 N 
ATOM     27  H   UNL     1     -14.235  18.427  32.945  0.00  0.00    +0.401 HD
ATOM     28  O   UNL     1     -15.238  16.583  30.678  0.00  0.00    -0.527 OA
BRANCH  25  30
ATOM     29  C   UNL     1     -13.494  19.486  30.358  0.00  0.00    +0.244 C 
ATOM     30  C   UNL     1     -14.709  18.839  30.417  0.00  0.00    -0.129 C 
BRANCH  29  32
ATOM     31  C   UNL     1     -13.148  20.854  28.313  0.00  0.00    +0.077 A 
ATOM     32  C   UNL     1     -13.390  20.786  29.694  0.00  0.00    -0.101 A 
ATOM     33  C   UNL     1     -13.531  21.969  30.434  0.00  0.00    +0.033 A 
ATOM     34  C   UNL     1     -13.432  23.191  29.801  0.00  0.00    +0.081 A 
ATOM     35  C   UNL     1     -13.192  23.249  28.428  0.00  0.00    +0.109 A 
ATOM     36  C   UNL     1     -13.051  22.079  27.692  0.00  0.00    +0.009 A 
BRANCH  35  37
ATOM     37  O   UNL     1     -13.094  24.453  27.808  0.00  0.00    -0.485 OA
ATOM     38  H   UNL     1     -12.392  25.019  28.156  0.00  0.00    +0.394 HD
ENDBRANCH  35  37
BRANCH  34  39
ATOM     39  O   UNL     1     -13.570  24.339  30.516  0.00  0.00    -0.483 OA
ATOM     40  H   UNL     1     -13.736  25.123  29.972  0.00  0.00    +0.390 HD
ENDBRANCH  34  39
ENDBRANCH  29  32
BRANCH  30  41
ATOM     41  C   UNL     1     -15.836  19.365  29.708  0.00  0.00    +0.238 C 
ATOM     42  N   UNL     1     -16.731  19.783  29.146  0.00  0.00    -0.395 NA
ENDBRANCH  30  41
ENDBRANCH  25  30
ENDBRANCH  24  26
ENDBRANCH  23  24
ENDBRANCH   1  23
TORSDOF 17
ENDMDL
MODEL 3
REMARK VINA RESULT:      -7.7      2.469      6.373
REMARK  Name = CHEMBL144760
REMARK  17 active torsions:
REMARK  status: ('A' for Active; 'I' for Inactive)
REMARK    1  A    between atoms: C2_2  and  C7_9
REMARK    2  A    between atoms: C4_4  and  O2_8
REMARK    3  A    between atoms: C5_5  and  O1_7
REMARK    4  A    between atoms: C8_10  and  C9_11
REMARK    5  A    between atoms: C8_10  and  C26_35
REMARK    6  A    between atoms: N1_13  and  C10_14
REMARK    7  A    between atoms: C10_14  and  C11_15
REMARK    8  A    between atoms: C11_15  and  C12_16
REMARK    9  A    between atoms: C12_16  and  C13_17
REMARK   10  A    between atoms: C13_17  and  C14_18
REMARK   11  A    between atoms: C14_18  and  C15_19
REMARK   12  A    between atoms: C15_19  and  N2_20
REMARK   13  A    between atoms: C16_21  and  C17_23
REMARK   14  A    between atoms: C17_23  and  C25_33
REMARK   15  A    between atoms: C18_24  and  C19_25
REMARK   16  A    between atoms: C21_27  and  O6_32
REMARK   17  A    between atoms: C22_28  and  O5_31
REMARK                            x       y       z     vdW  Elec       q    Type
REMARK                         _______ _______ _______ _____ _____    ______ ____
ROOT
ATOM      1  C   UNL     1     -18.226  18.151  29.466  0.00  0.00    +0.021 C 
ENDROOT
BRANCH   1   2
ATOM      2  C   UNL     1     -18.329  18.825  30.835  0.00  0.00    +0.021 C 
BRANCH   2   3
ATOM      3  C   UNL     1     -17.130  18.417  31.695  0.00  0.00    +0.008 C 
BRANCH   3   4
ATOM      4  C   UNL     1     -16.186  17.541  30.869  0.00  0.00    +0.265 C 
BRANCH   4   5
ATOM      5  N   UNL     1     -14.810  18.016  31.034  0.00  0.00    -0.725 N 
ATOM      6  H   UNL     1     -14.355  17.899  31.883  0.00  0.00    +0.401 HD
ATOM      7  C   UNL     1     -14.176  18.616  30.008  0.00  0.00    +0.575 C 
ATOM      8  O   UNL     1     -14.746  18.763  28.943  0.00  0.00    -0.526 OA
BRANCH   7   9
ATOM      9  C   UNL     1     -12.794  19.092  30.173  0.00  0.00    -0.129 C 
ATOM     10  C   UNL     1     -11.753  18.402  29.590  0.00  0.00    +0.244 C 
BRANCH  10  11
ATOM     11  C   UNL     1     -10.369  18.784  29.878  0.00  0.00    -0.101 A 
ATOM     12  C   UNL     1      -9.763  19.827  29.162  0.00  0.00    +0.033 A 
ATOM     13  C   UNL     1      -8.459  20.182  29.439  0.00  0.00    +0.081 A 
ATOM     14  C   UNL     1      -7.745  19.503  30.428  0.00  0.00    +0.109 A 
ATOM     15  C   UNL     1      -8.344  18.470  31.139  0.00  0.00    +0.009 A 
ATOM     16  C   UNL     1      -9.647  18.113  30.874  0.00  0.00    +0.077 A 
BRANCH  14  17
ATOM     17  O   UNL     1      -6.462  19.855  30.698  0.00  0.00    -0.485 OA
ATOM     18  H   UNL     1      -6.290  20.030  31.634  0.00  0.00    +0.394 HD
ENDBRANCH  14  17
BRANCH  13  19
ATOM     19  O   UNL     1      -7.869  21.192  28.747  0.00  0.00    -0.482 OA
ATOM     20  H   UNL     1      -8.492  21.827  28.369  0.00  0.00    +0.390 HD
ENDBRANCH  13  19
ENDBRANCH  10  11
BRANCH   9  21
ATOM     21  C   UNL     1     -12.530  20.273  30.940  0.00  0.00    +0.238 C 
ATOM     22  N   UNL     1     -12.321  21.210  31.547  0.00  0.00    -0.395 NA
ENDBRANCH   9  21
ENDBRANCH   7   9
ENDBRANCH   4   5
ENDBRANCH   3   4
ENDBRANCH   2   3
ENDBRANCH   1   2
BRANCH   1  23
ATOM     23  C   UNL     1     -18.532  19.173  28.370  0.00  0.00    +0.008 C 
BRANCH  23  24
ATOM     24  C   UNL     1     -18.236  20.582  28.889  0.00  0.00    +0.265 C 
BRANCH  24  26
ATOM     25  C   UNL     1     -16.626  22.199  28.034  0.00  0.00    +0.575 C 
ATOM     26  N   UNL     1     -16.872  20.964  28.514  0.00  0.00    -0.725 N 
ATOM     27  H   UNL     1     -16.147  20.328  28.612  0.00  0.00    +0.401 HD
ATOM     28  O   UNL     1     -17.537  22.997  27.912  0.00  0.00    -0.527 OA
BRANCH  25  30
ATOM     29  C   UNL     1     -14.179  21.983  28.274  0.00  0.00    +0.244 C 
ATOM     30  C   UNL     1     -15.256  22.583  27.658  0.00  0.00    -0.129 C 
BRANCH  29  32
ATOM     31  C   UNL     1     -11.972  21.744  27.159  0.00  0.00    +0.077 A 
ATOM     32  C   UNL     1     -12.823  22.466  28.009  0.00  0.00    -0.101 A 
ATOM     33  C   UNL     1     -12.368  23.651  28.604  0.00  0.00    +0.033 A 
ATOM     34  C   UNL     1     -11.089  24.100  28.350  0.00  0.00    +0.081 A 
ATOM     35  C   UNL     1     -10.250  23.376  27.502  0.00  0.00    +0.109 A 
ATOM     36  C   UNL     1     -10.698  22.201  26.911  0.00  0.00    +0.009 A 
BRANCH  35  37
ATOM     37  O   UNL     1      -8.991  23.821  27.254  0.00  0.00    -0.485 OA
ATOM     38  H   UNL     1      -8.482  23.250  26.663  0.00  0.00    +0.394 HD
ENDBRANCH  35  37
BRANCH  34  39
ATOM     39  O   UNL     1     -10.645  25.251  28.924  0.00  0.00    -0.483 OA
ATOM     40  H   UNL     1      -9.694  25.259  29.103  0.00  0.00    +0.390 HD
ENDBRANCH  34  39
ENDBRANCH  29  32
BRANCH  30  41
ATOM     41  C   UNL     1     -15.042  23.581  26.654  0.00  0.00    +0.238 C 
ATOM     42  N   UNL     1     -14.871  24.371  25.857  0.00  0.00    -0.395 NA
ENDBRANCH  30  41
ENDBRANCH  25  30
ENDBRANCH  24  26
ENDBRANCH  23  24
ENDBRANCH   1  23
TORSDOF 17
ENDMDL
MODEL 4
REMARK VINA RESULT:      -7.6      1.734      5.821
REMARK  Name = CHEMBL144760
REMARK  17 active torsions:
REMARK  status: ('A' for Active; 'I' for Inactive)
REMARK    1  A    between atoms: C2_2  and  C7_9
REMARK    2  A    between atoms: C4_4  and  O2_8
REMARK    3  A    between atoms: C5_5  and  O1_7
REMARK    4  A    between atoms: C8_10  and  C9_11
REMARK    5  A    between atoms: C8_10  and  C26_35
REMARK    6  A    between atoms: N1_13  and  C10_14
REMARK    7  A    between atoms: C10_14  and  C11_15
REMARK    8  A    between atoms: C11_15  and  C12_16
REMARK    9  A    between atoms: C12_16  and  C13_17
REMARK   10  A    between atoms: C13_17  and  C14_18
REMARK   11  A    between atoms: C14_18  and  C15_19
REMARK   12  A    between atoms: C15_19  and  N2_20
REMARK   13  A    between atoms: C16_21  and  C17_23
REMARK   14  A    between atoms: C17_23  and  C25_33
REMARK   15  A    between atoms: C18_24  and  C19_25
REMARK   16  A    between atoms: C21_27  and  O6_32
REMARK   17  A    between atoms: C22_28  and  O5_31
REMARK                            x       y       z     vdW  Elec       q    Type
REMARK                         _______ _______ _______ _____ _____    ______ ____
ROOT
ATOM      1  C   UNL     1     -13.114  16.567  32.594  0.00  0.00    +0.021 C 
ENDROOT
BRANCH   1   2
ATOM      2  C   UNL     1     -12.003  16.645  31.544  0.00  0.00    +0.021 C 
BRANCH   2   3
ATOM      3  C   UNL     1     -10.756  15.929  32.068  0.00  0.00    +0.008 C 
BRANCH   3   4
ATOM      4  C   UNL     1      -9.592  16.919  32.138  0.00  0.00    +0.265 C 
BRANCH   4   5
ATOM      5  N   UNL     1      -9.900  18.092  31.315  0.00  0.00    -0.725 N 
ATOM      6  H   UNL     1     -10.823  18.335  31.142  0.00  0.00    +0.401 HD
ATOM      7  C   UNL     1      -8.900  18.833  30.798  0.00  0.00    +0.575 C 
ATOM      8  O   UNL     1      -7.742  18.529  31.014  0.00  0.00    -0.526 OA
BRANCH   7   9
ATOM      9  C   UNL     1      -9.209  20.011  29.972  0.00  0.00    -0.129 C 
ATOM     10  C   UNL     1      -8.272  20.495  29.084  0.00  0.00    +0.244 C 
BRANCH  10  11
ATOM     11  C   UNL     1      -8.517  21.752  28.375  0.00  0.00    -0.101 A 
ATOM     12  C   UNL     1      -8.147  22.973  28.957  0.00  0.00    +0.033 A 
ATOM     13  C   UNL     1      -8.380  24.154  28.284  0.00  0.00    +0.081 A 
ATOM     14  C   UNL     1      -8.985  24.133  27.026  0.00  0.00    +0.109 A 
ATOM     15  C   UNL     1      -9.353  22.924  26.446  0.00  0.00    +0.009 A 
ATOM     16  C   UNL     1      -9.118  21.740  27.108  0.00  0.00    +0.077 A 
BRANCH  14  17
ATOM     17  O   UNL     1      -9.213  25.296  26.365  0.00  0.00    -0.485 OA
ATOM     18  H   UNL     1      -9.427  26.042  26.943  0.00  0.00    +0.394 HD
ENDBRANCH  14  17
BRANCH  13  19
ATOM     19  O   UNL     1      -8.023  25.339  28.846  0.00  0.00    -0.482 OA
ATOM     20  H   UNL     1      -7.662  25.258  29.738  0.00  0.00    +0.390 HD
ENDBRANCH  13  19
ENDBRANCH  10  11
BRANCH   9  21
ATOM     21  C   UNL     1     -10.482  20.655  30.091  0.00  0.00    +0.238 C 
ATOM     22  N   UNL     1     -11.493  21.165  30.186  0.00  0.00    -0.395 NA
ENDBRANCH   9  21
ENDBRANCH   7   9
ENDBRANCH   4   5
ENDBRANCH   3   4
ENDBRANCH   2   3
ENDBRANCH   1   2
BRANCH   1  23
ATOM     23  C   UNL     1     -13.366  17.960  33.173  0.00  0.00    +0.008 C 
BRANCH  23  24
ATOM     24  C   UNL     1     -14.788  18.407  32.827  0.00  0.00    +0.265 C 
BRANCH  24  26
ATOM     25  C   UNL     1     -15.262  20.610  31.899  0.00  0.00    +0.575 C 
ATOM     26  N   UNL     1     -14.743  19.378  31.730  0.00  0.00    -0.725 N 
ATOM     27  H   UNL     1     -14.338  19.133  30.884  0.00  0.00    +0.401 HD
ATOM     28  O   UNL     1     -15.769  20.915  32.963  0.00  0.00    -0.527 OA
BRANCH  25  30
ATOM     29  C   UNL     1     -15.812  21.291  29.592  0.00  0.00    +0.244 C 
ATOM     30  C   UNL     1     -15.215  21.585  30.799  0.00  0.00    -0.129 C 
BRANCH  29  32
ATOM     31  C   UNL     1     -14.502  22.094  27.639  0.00  0.00    +0.077 A 
ATOM     32  C   UNL     1     -15.641  22.194  28.452  0.00  0.00    -0.101 A 
ATOM     33  C   UNL     1     -16.614  23.163  28.168  0.00  0.00    +0.033 A 
ATOM     34  C   UNL     1     -16.447  24.010  27.094  0.00  0.00    +0.081 A 
ATOM     35  C   UNL     1     -15.311  23.903  26.290  0.00  0.00    +0.109 A 
ATOM     36  C   UNL     1     -14.344  22.944  26.569  0.00  0.00    +0.009 A 
BRANCH  35  37
ATOM     37  O   UNL     1     -15.148  24.739  25.232  0.00  0.00    -0.485 OA
ATOM     38  H   UNL     1     -14.296  24.646  24.785  0.00  0.00    +0.394 HD
ENDBRANCH  35  37
BRANCH  34  39
ATOM     39  O   UNL     1     -17.390  24.950  26.815  0.00  0.00    -0.483 OA
ATOM     40  H   UNL     1     -17.734  24.905  25.911  0.00  0.00    +0.390 HD
ENDBRANCH  34  39
ENDBRANCH  29  32
BRANCH  30  41
ATOM     41  C   UNL     1     -14.550  22.840  30.982  0.00  0.00    +0.238 C 
ATOM     42  N   UNL     1     -14.021  23.834  31.127  0.00  0.00    -0.395 NA
ENDBRANCH  30  41
ENDBRANCH  25  30
ENDBRANCH  24  26
ENDBRANCH  23  24
ENDBRANCH   1  23
TORSDOF 17
ENDMDL
MODEL 5
REMARK VINA RESULT:      -7.6      1.538      5.672
REMARK  Name = CHEMBL144760
REMARK  17 active torsions:
REMARK  status: ('A' for Active; 'I' for Inactive)
REMARK    1  A    between atoms: C2_2  and  C7_9
REMARK    2  A    between atoms: C4_4  and  O2_8
REMARK    3  A    between atoms: C5_5  and  O1_7
REMARK    4  A    between atoms: C8_10  and  C9_11
REMARK    5  A    between atoms: C8_10  and  C26_35
REMARK    6  A    between atoms: N1_13  and  C10_14
REMARK    7  A    between atoms: C10_14  and  C11_15
REMARK    8  A    between atoms: C11_15  and  C12_16
REMARK    9  A    between atoms: C12_16  and  C13_17
REMARK   10  A    between atoms: C13_17  and  C14_18
REMARK   11  A    between atoms: C14_18  and  C15_19
REMARK   12  A    between atoms: C15_19  and  N2_20
REMARK   13  A    between atoms: C16_21  and  C17_23
REMARK   14  A    between atoms: C17_23  and  C25_33
REMARK   15  A    between atoms: C18_24  and  C19_25
REMARK   16  A    between atoms: C21_27  and  O6_32
REMARK   17  A    between atoms: C22_28  and  O5_31
REMARK                            x       y       z     vdW  Elec       q    Type
REMARK                         _______ _______ _______ _____ _____    ______ ____
ROOT
ATOM      1  C   UNL     1     -13.192  17.554  32.602  0.00  0.00    +0.021 C 
ENDROOT
BRANCH   1   2
ATOM      2  C   UNL     1     -11.755  18.044  32.410  0.00  0.00    +0.021 C 
BRANCH   2   3
ATOM      3  C   UNL     1     -10.871  16.874  31.972  0.00  0.00    +0.008 C 
BRANCH   3   4
ATOM      4  C   UNL     1      -9.432  17.362  31.795  0.00  0.00    +0.265 C 
BRANCH   4   5
ATOM      5  N   UNL     1      -9.431  18.607  31.022  0.00  0.00    -0.725 N 
ATOM      6  H   UNL     1     -10.264  19.077  30.859  0.00  0.00    +0.401 HD
ATOM      7  C   UNL     1      -8.274  19.098  30.538  0.00  0.00    +0.575 C 
ATOM      8  O   UNL     1      -7.229  18.508  30.743  0.00  0.00    -0.526 OA
BRANCH   7   9
ATOM      9  C   UNL     1      -8.272  20.348  29.762  0.00  0.00    -0.129 C 
ATOM     10  C   UNL     1      -9.361  20.678  28.984  0.00  0.00    +0.244 C 
BRANCH  10  11
ATOM     11  C   UNL     1      -9.301  21.840  28.096  0.00  0.00    -0.101 A 
ATOM     12  C   UNL     1      -9.718  23.099  28.554  0.00  0.00    +0.033 A 
ATOM     13  C   UNL     1      -9.658  24.190  27.713  0.00  0.00    +0.081 A 
ATOM     14  C   UNL     1      -9.186  24.040  26.407  0.00  0.00    +0.109 A 
ATOM     15  C   UNL     1      -8.773  22.794  25.951  0.00  0.00    +0.009 A 
ATOM     16  C   UNL     1      -8.823  21.700  26.786  0.00  0.00    +0.077 A 
BRANCH  14  17
ATOM     17  O   UNL     1      -9.129  25.116  25.581  0.00  0.00    -0.485 OA
ATOM     18  H   UNL     1      -9.439  24.939  24.682  0.00  0.00    +0.394 HD
ENDBRANCH  14  17
BRANCH  13  19
ATOM     19  O   UNL     1     -10.061  25.411  28.154  0.00  0.00    -0.482 OA
ATOM     20  H   UNL     1     -10.996  25.597  27.996  0.00  0.00    +0.390 HD
ENDBRANCH  13  19
ENDBRANCH  10  11
BRANCH   9  21
ATOM     21  C   UNL     1      -7.139  21.223  29.816  0.00  0.00    +0.238 C 
ATOM     22  N   UNL     1      -6.240  21.916  29.859  0.00  0.00    -0.395 NA
ENDBRANCH   9  21
ENDBRANCH   7   9
ENDBRANCH   4   5
ENDBRANCH   3   4
ENDBRANCH   2   3
ENDBRANCH   1   2
BRANCH   1  23
ATOM     23  C   UNL     1     -13.455  16.369  31.672  0.00  0.00    +0.008 C 
BRANCH  23  24
ATOM     24  C   UNL     1     -14.706  16.645  30.834  0.00  0.00    +0.265 C 
BRANCH  24  26
ATOM     25  C   UNL     1     -14.164  18.640  29.544  0.00  0.00    +0.575 C 
ATOM     26  N   UNL     1     -14.817  18.085  30.583  0.00  0.00    -0.725 N 
ATOM     27  H   UNL     1     -15.361  18.637  31.166  0.00  0.00    +0.401 HD
ATOM     28  O   UNL     1     -13.482  17.946  28.813  0.00  0.00    -0.527 OA
BRANCH  25  30
ATOM     29  C   UNL     1     -15.265  20.564  28.459  0.00  0.00    +0.244 C 
ATOM     30  C   UNL     1     -14.277  20.085  29.292  0.00  0.00    -0.129 C 
BRANCH  29  32
ATOM     31  C   UNL     1     -14.630  22.418  26.931  0.00  0.00    +0.077 A 
ATOM     32  C   UNL     1     -15.288  21.981  28.091  0.00  0.00    -0.101 A 
ATOM     33  C   UNL     1     -15.968  22.907  28.895  0.00  0.00    +0.033 A 
ATOM     34  C   UNL     1     -15.986  24.240  28.543  0.00  0.00    +0.081 A 
ATOM     35  C   UNL     1     -15.329  24.666  27.387  0.00  0.00    +0.109 A 
ATOM     36  C   UNL     1     -14.655  23.751  26.589  0.00  0.00    +0.009 A 
BRANCH  35  37
ATOM     37  O   UNL     1     -15.348  25.979  27.043  0.00  0.00    -0.485 OA
ATOM     38  H   UNL     1     -16.002  26.198  26.366  0.00  0.00    +0.394 HD
ENDBRANCH  35  37
BRANCH  34  39
ATOM     39  O   UNL     1     -16.645  25.140  29.320  0.00  0.00    -0.483 OA
ATOM     40  H   UNL     1     -17.514  24.837  29.620  0.00  0.00    +0.390 HD
ENDBRANCH  34  39
ENDBRANCH  29  32
BRANCH  30  41
ATOM     41  C   UNL     1     -13.360  20.994  29.911  0.00  0.00    +0.238 C 
ATOM     42  N   UNL     1     -12.632  21.715  30.402  0.00  0.00    -0.395 NA
ENDBRANCH  30  41
ENDBRANCH  25  30
ENDBRANCH  24  26
ENDBRANCH  23  24
ENDBRANCH   1  23
TORSDOF 17
ENDMDL
MODEL 6
REMARK VINA RESULT:      -7.6      2.137      2.708
REMARK  Name = CHEMBL144760
REMARK  17 active torsions:
REMARK  status: ('A' for Active; 'I' for Inactive)
REMARK    1  A    between atoms: C2_2  and  C7_9
REMARK    2  A    between atoms: C4_4  and  O2_8
REMARK    3  A    between atoms: C5_5  and  O1_7
REMARK    4  A    between atoms: C8_10  and  C9_11
REMARK    5  A    between atoms: C8_10  and  C26_35
REMARK    6  A    between atoms: N1_13  and  C10_14
REMARK    7  A    between atoms: C10_14  and  C11_15
REMARK    8  A    between atoms: C11_15  and  C12_16
REMARK    9  A    between atoms: C12_16  and  C13_17
REMARK   10  A    between atoms: C13_17  and  C14_18
REMARK   11  A    between atoms: C14_18  and  C15_19
REMARK   12  A    between atoms: C15_19  and  N2_20
REMARK   13  A    between atoms: C16_21  and  C17_23
REMARK   14  A    between atoms: C17_23  and  C25_33
REMARK   15  A    between atoms: C18_24  and  C19_25
REMARK   16  A    between atoms: C21_27  and  O6_32
REMARK   17  A    between atoms: C22_28  and  O5_31
REMARK                            x       y       z     vdW  Elec       q    Type
REMARK                         _______ _______ _______ _____ _____    ______ ____
ROOT
ATOM      1  C   UNL     1     -11.726  15.900  31.893  0.00  0.00    +0.021 C 
ENDROOT
BRANCH   1   2
ATOM      2  C   UNL     1     -12.505  16.389  33.116  0.00  0.00    +0.021 C 
BRANCH   2   3
ATOM      3  C   UNL     1     -13.149  17.742  32.803  0.00  0.00    +0.008 C 
BRANCH   3   4
ATOM      4  C   UNL     1     -13.639  17.748  31.354  0.00  0.00    +0.265 C 
BRANCH   4   5
ATOM      5  N   UNL     1     -14.249  19.046  31.051  0.00  0.00    -0.725 N 
ATOM      6  H   UNL     1     -14.509  19.640  31.773  0.00  0.00    +0.401 HD
ATOM      7  C   UNL     1     -14.451  19.413  29.770  0.00  0.00    +0.575 C 
ATOM      8  O   UNL     1     -14.126  18.668  28.865  0.00  0.00    -0.526 OA
BRANCH   7   9
ATOM      9  C   UNL     1     -15.063  20.716  29.466  0.00  0.00    -0.129 C 
ATOM     10  C   UNL     1     -15.767  20.890  28.294  0.00  0.00    +0.244 C 
BRANCH  10  11
ATOM     11  C   UNL     1     -16.246  22.221  27.918  0.00  0.00    -0.101 A 
ATOM     12  C   UNL     1     -15.421  23.084  27.181  0.00  0.00    +0.033 A 
ATOM     13  C   UNL     1     -15.878  24.337  26.830  0.00  0.00    +0.081 A 
ATOM     14  C   UNL     1     -17.158  24.746  27.210  0.00  0.00    +0.109 A 
ATOM     15  C   UNL     1     -17.976  23.893  27.942  0.00  0.00    +0.009 A 
ATOM     16  C   UNL     1     -17.531  22.638  28.291  0.00  0.00    +0.077 A 
BRANCH  14  17
ATOM     17  O   UNL     1     -17.605  25.979  26.864  0.00  0.00    -0.485 OA
ATOM     18  H   UNL     1     -18.415  25.971  26.335  0.00  0.00    +0.394 HD
ENDBRANCH  14  17
BRANCH  13  19
ATOM     19  O   UNL     1     -15.082  25.175  26.115  0.00  0.00    -0.482 OA
ATOM     20  H   UNL     1     -14.137  24.999  26.213  0.00  0.00    +0.390 HD
ENDBRANCH  13  19
ENDBRANCH  10  11
BRANCH   9  21
ATOM     21  C   UNL     1     -14.928  21.803  30.388  0.00  0.00    +0.238 C 
ATOM     22  N   UNL     1     -14.821  22.665  31.120  0.00  0.00    -0.395 NA
ENDBRANCH   9  21
ENDBRANCH   7   9
ENDBRANCH   4   5
ENDBRANCH   3   4
ENDBRANCH   2   3
ENDBRANCH   1   2
BRANCH   1  23
ATOM     23  C   UNL     1     -10.442  15.206  32.351  0.00  0.00    +0.008 C 
BRANCH  23  24
ATOM     24  C   UNL     1      -9.234  16.063  31.969  0.00  0.00    +0.265 C 
BRANCH  24  26
ATOM     25  C   UNL     1      -8.805  18.256  30.995  0.00  0.00    +0.575 C 
ATOM     26  N   UNL     1      -9.695  17.305  31.341  0.00  0.00    -0.725 N 
ATOM     27  H   UNL     1     -10.640  17.441  31.174  0.00  0.00    +0.401 HD
ATOM     28  O   UNL     1      -7.618  18.083  31.204  0.00  0.00    -0.527 OA
BRANCH  25  30
ATOM     29  C   UNL     1     -10.602  19.843  30.410  0.00  0.00    +0.244 C 
ATOM     30  C   UNL     1      -9.267  19.502  30.364  0.00  0.00    -0.129 C 
BRANCH  29  32
ATOM     31  C   UNL     1     -11.485  20.860  28.322  0.00  0.00    +0.077 A 
ATOM     32  C   UNL     1     -11.086  21.003  29.659  0.00  0.00    -0.101 A 
ATOM     33  C   UNL     1     -11.154  22.262  30.274  0.00  0.00    +0.033 A 
ATOM     34  C   UNL     1     -11.611  23.350  29.561  0.00  0.00    +0.081 A 
ATOM     35  C   UNL     1     -12.006  23.198  28.231  0.00  0.00    +0.109 A 
ATOM     36  C   UNL     1     -11.940  21.952  27.620  0.00  0.00    +0.009 A 
BRANCH  35  37
ATOM     37  O   UNL     1     -12.456  24.272  27.532  0.00  0.00    -0.485 OA
ATOM     38  H   UNL     1     -11.771  24.923  27.329  0.00  0.00    +0.394 HD
ENDBRANCH  35  37
BRANCH  34  39
ATOM     39  O   UNL     1     -11.679  24.572  30.155  0.00  0.00    -0.483 OA
ATOM     40  H   UNL     1     -12.484  25.066  29.945  0.00  0.00    +0.390 HD
ENDBRANCH  34  39
ENDBRANCH  29  32
BRANCH  30  41
ATOM     41  C   UNL     1      -8.331  20.360  29.703  0.00  0.00    +0.238 C 
ATOM     42  N   UNL     1      -7.588  21.040  29.178  0.00  0.00    -0.395 NA
ENDBRANCH  30  41
ENDBRANCH  25  30
ENDBRANCH  24  26
ENDBRANCH  23  24
ENDBRANCH   1  23
TORSDOF 17
ENDMDL
MODEL 7
REMARK VINA RESULT:      -7.5      2.600      7.908
REMARK  Name = CHEMBL144760
REMARK  17 active torsions:
REMARK  status: ('A' for Active; 'I' for Inactive)
REMARK    1  A    between atoms: C2_2  and  C7_9
REMARK    2  A    between atoms: C4_4  and  O2_8
REMARK    3  A    between atoms: C5_5  and  O1_7
REMARK    4  A    between atoms: C8_10  and  C9_11
REMARK    5  A    between atoms: C8_10  and  C26_35
REMARK    6  A    between atoms: N1_13  and  C10_14
REMARK    7  A    between atoms: C10_14  and  C11_15
REMARK    8  A    between atoms: C11_15  and  C12_16
REMARK    9  A    between atoms: C12_16  and  C13_17
REMARK   10  A    between atoms: C13_17  and  C14_18
REMARK   11  A    between atoms: C14_18  and  C15_19
REMARK   12  A    between atoms: C15_19  and  N2_20
REMARK   13  A    between atoms: C16_21  and  C17_23
REMARK   14  A    between atoms: C17_23  and  C25_33
REMARK   15  A    between atoms: C18_24  and  C19_25
REMARK   16  A    between atoms: C21_27  and  O6_32
REMARK   17  A    between atoms: C22_28  and  O5_31
REMARK                            x       y       z     vdW  Elec       q    Type
REMARK                         _______ _______ _______ _____ _____    ______ ____
ROOT
ATOM      1  C   UNL     1     -17.740  22.656  28.530  0.00  0.00    +0.021 C 
ENDROOT
BRANCH   1   2
ATOM      2  C   UNL     1     -17.284  23.682  27.491  0.00  0.00    +0.021 C 
BRANCH   2   3
ATOM      3  C   UNL     1     -16.208  24.583  28.103  0.00  0.00    +0.008 C 
BRANCH   3   4
ATOM      4  C   UNL     1     -14.979  24.597  27.192  0.00  0.00    +0.265 C 
BRANCH   4   5
ATOM      5  N   UNL     1     -13.817  24.099  27.933  0.00  0.00    -0.725 N 
ATOM      6  H   UNL     1     -13.421  24.639  28.635  0.00  0.00    +0.401 HD
ATOM      7  C   UNL     1     -13.297  22.891  27.639  0.00  0.00    +0.575 C 
ATOM      8  O   UNL     1     -13.793  22.213  26.759  0.00  0.00    -0.526 OA
BRANCH   7   9
ATOM      9  C   UNL     1     -12.131  22.390  28.383  0.00  0.00    -0.129 C 
ATOM     10  C   UNL     1     -10.998  21.996  27.705  0.00  0.00    +0.244 C 
BRANCH  10  11
ATOM     11  C   UNL     1      -9.897  21.357  28.428  0.00  0.00    -0.101 A 
ATOM     12  C   UNL     1      -8.721  22.073  28.696  0.00  0.00    +0.033 A 
ATOM     13  C   UNL     1      -7.688  21.465  29.378  0.00  0.00    +0.081 A 
ATOM     14  C   UNL     1      -7.812  20.140  29.798  0.00  0.00    +0.109 A 
ATOM     15  C   UNL     1      -8.976  19.428  29.534  0.00  0.00    +0.009 A 
ATOM     16  C   UNL     1     -10.016  20.029  28.859  0.00  0.00    +0.077 A 
BRANCH  14  17
ATOM     17  O   UNL     1      -6.794  19.544  30.469  0.00  0.00    -0.485 OA
ATOM     18  H   UNL     1      -5.933  19.627  30.034  0.00  0.00    +0.394 HD
ENDBRANCH  14  17
BRANCH  13  19
ATOM     19  O   UNL     1      -6.546  22.156  29.639  0.00  0.00    -0.482 OA
ATOM     20  H   UNL     1      -5.771  21.828  29.166  0.00  0.00    +0.390 HD
ENDBRANCH  13  19
ENDBRANCH  10  11
BRANCH   9  21
ATOM     21  C   UNL     1     -12.173  22.313  29.813  0.00  0.00    +0.238 C 
ATOM     22  N   UNL     1     -12.206  22.251  30.947  0.00  0.00    -0.395 NA
ENDBRANCH   9  21
ENDBRANCH   7   9
ENDBRANCH   4   5
ENDBRANCH   3   4
ENDBRANCH   2   3
ENDBRANCH   1   2
BRANCH   1  23
ATOM     23  C   UNL     1     -16.726  21.513  28.597  0.00  0.00    +0.008 C 
BRANCH  23  24
ATOM     24  C   UNL     1     -16.020  21.535  29.955  0.00  0.00    +0.265 C 
BRANCH  24  26
ATOM     25  C   UNL     1     -14.862  19.632  30.942  0.00  0.00    +0.575 C 
ATOM     26  N   UNL     1     -14.936  20.550  29.958  0.00  0.00    -0.725 N 
ATOM     27  H   UNL     1     -14.271  20.559  29.252  0.00  0.00    +0.401 HD
ATOM     28  O   UNL     1     -15.698  19.622  31.828  0.00  0.00    -0.527 OA
BRANCH  25  30
ATOM     29  C   UNL     1     -13.229  18.222  32.140  0.00  0.00    +0.244 C 
ATOM     30  C   UNL     1     -13.774  18.642  30.946  0.00  0.00    -0.129 C 
BRANCH  29  32
ATOM     31  C   UNL     1     -12.206  15.959  32.058  0.00  0.00    +0.077 A 
ATOM     32  C   UNL     1     -12.052  17.351  32.140  0.00  0.00    -0.101 A 
ATOM     33  C   UNL     1     -10.766  17.905  32.221  0.00  0.00    +0.033 A 
ATOM     34  C   UNL     1      -9.662  17.079  32.220  0.00  0.00    +0.081 A 
ATOM     35  C   UNL     1      -9.824  15.696  32.139  0.00  0.00    +0.109 A 
ATOM     36  C   UNL     1     -11.097  15.144  32.058  0.00  0.00    +0.009 A 
BRANCH  35  37
ATOM     37  O   UNL     1      -8.735  14.885  32.138  0.00  0.00    -0.485 OA
ATOM     38  H   UNL     1      -7.964  15.262  32.584  0.00  0.00    +0.394 HD
ENDBRANCH  35  37
BRANCH  34  39
ATOM     39  O   UNL     1      -8.413  17.613  32.298  0.00  0.00    -0.483 OA
ATOM     40  H   UNL     1      -7.903  17.311  33.063  0.00  0.00    +0.390 HD
ENDBRANCH  34  39
ENDBRANCH  29  32
BRANCH  30  41
ATOM     41  C   UNL     1     -13.281  18.117  29.708  0.00  0.00    +0.238 C 
ATOM     42  N   UNL     1     -12.889  17.699  28.728  0.00  0.00    -0.395 NA
ENDBRANCH  30  41
ENDBRANCH  25  30
ENDBRANCH  24  26
ENDBRANCH  23  24
ENDBRANCH   1  23
TORSDOF 17
ENDMDL
MODEL 8
REMARK VINA RESULT:      -7.5      1.759      2.172
REMARK  Name = CHEMBL144760
REMARK  17 active torsions:
REMARK  status: ('A' for Active; 'I' for Inactive)
REMARK    1  A    between atoms: C2_2  and  C7_9
REMARK    2  A    between atoms: C4_4  and  O2_8
REMARK    3  A    between atoms: C5_5  and  O1_7
REMARK    4  A    between atoms: C8_10  and  C9_11
REMARK    5  A    between atoms: C8_10  and  C26_35
REMARK    6  A    between atoms: N1_13  and  C10_14
REMARK    7  A    between atoms: C10_14  and  C11_15
REMARK    8  A    between atoms: C11_15  and  C12_16
REMARK    9  A    between atoms: C12_16  and  C13_17
REMARK   10  A    between atoms: C13_17  and  C14_18
REMARK   11  A    between atoms: C14_18  and  C15_19
REMARK   12  A    between atoms: C15_19  and  N2_20
REMARK   13  A    between atoms: C16_21  and  C17_23
REMARK   14  A    between atoms: C17_23  and  C25_33
REMARK   15  A    between atoms: C18_24  and  C19_25
REMARK   16  A    between atoms: C21_27  and  O6_32
REMARK   17  A    between atoms: C22_28  and  O5_31
REMARK                            x       y       z     vdW  Elec       q    Type
REMARK                         _______ _______ _______ _____ _____    ______ ____
ROOT
ATOM      1  C   UNL     1     -10.943  15.212  32.124  0.00  0.00    +0.021 C 
ENDROOT
BRANCH   1   2
ATOM      2  C   UNL     1     -12.369  14.718  32.378  0.00  0.00    +0.021 C 
BRANCH   2   3
ATOM      3  C   UNL     1     -12.975  15.492  33.551  0.00  0.00    +0.008 C 
BRANCH   3   4
ATOM      4  C   UNL     1     -14.363  16.004  33.159  0.00  0.00    +0.265 C 
BRANCH   4   5
ATOM      5  N   UNL     1     -14.241  17.341  32.570  0.00  0.00    -0.725 N 
ATOM      6  H   UNL     1     -14.000  18.097  33.129  0.00  0.00    +0.401 HD
ATOM      7  C   UNL     1     -14.463  17.520  31.253  0.00  0.00    +0.575 C 
ATOM      8  O   UNL     1     -14.765  16.572  30.553  0.00  0.00    -0.526 OA
BRANCH   7   9
ATOM      9  C   UNL     1     -14.340  18.861  30.662  0.00  0.00    -0.129 C 
ATOM     10  C   UNL     1     -13.161  19.243  30.059  0.00  0.00    +0.244 C 
BRANCH  10  11
ATOM     11  C   UNL     1     -12.984  20.624  29.607  0.00  0.00    -0.101 A 
ATOM     12  C   UNL     1     -13.258  20.970  28.276  0.00  0.00    +0.033 A 
ATOM     13  C   UNL     1     -13.090  22.273  27.856  0.00  0.00    +0.081 A 
ATOM     14  C   UNL     1     -12.645  23.244  28.755  0.00  0.00    +0.109 A 
ATOM     15  C   UNL     1     -12.372  22.904  30.074  0.00  0.00    +0.009 A 
ATOM     16  C   UNL     1     -12.543  21.607  30.504  0.00  0.00    +0.077 A 
BRANCH  14  17
ATOM     17  O   UNL     1     -12.480  24.525  28.339  0.00  0.00    -0.485 OA
ATOM     18  H   UNL     1     -13.305  25.023  28.257  0.00  0.00    +0.394 HD
ENDBRANCH  14  17
BRANCH  13  19
ATOM     19  O   UNL     1     -13.355  22.611  26.566  0.00  0.00    -0.482 OA
ATOM     20  H   UNL     1     -13.566  21.859  25.998  0.00  0.00    +0.390 HD
ENDBRANCH  13  19
ENDBRANCH  10  11
BRANCH   9  21
ATOM     21  C   UNL     1     -15.446  19.770  30.712  0.00  0.00    +0.238 C 
ATOM     22  N   UNL     1     -16.323  20.491  30.753  0.00  0.00    -0.395 NA
ENDBRANCH   9  21
ENDBRANCH   7   9
ENDBRANCH   4   5
ENDBRANCH   3   4
ENDBRANCH   2   3
ENDBRANCH   1   2
BRANCH   1  23
ATOM     23  C   UNL     1     -10.986  16.659  31.630  0.00  0.00    +0.008 C 
BRANCH  23  24
ATOM     24  C   UNL     1      -9.603  17.294  31.792  0.00  0.00    +0.265 C 
BRANCH  24  26
ATOM     25  C   UNL     1      -8.336  18.997  30.595  0.00  0.00    +0.575 C 
ATOM     26  N   UNL     1      -9.532  18.520  30.992  0.00  0.00    -0.725 N 
ATOM     27  H   UNL     1     -10.346  18.987  30.748  0.00  0.00    +0.401 HD
ATOM     28  O   UNL     1      -7.314  18.410  30.901  0.00  0.00    -0.527 OA
BRANCH  25  30
ATOM     29  C   UNL     1      -9.329  20.593  28.997  0.00  0.00    +0.244 C 
ATOM     30  C   UNL     1      -8.264  20.227  29.791  0.00  0.00    -0.129 C 
BRANCH  29  32
ATOM     31  C   UNL     1      -9.088  21.521  26.704  0.00  0.00    +0.077 A 
ATOM     32  C   UNL     1      -9.204  21.733  28.086  0.00  0.00    -0.101 A 
ATOM     33  C   UNL     1      -9.199  23.042  28.592  0.00  0.00    +0.033 A 
ATOM     34  C   UNL     1      -9.081  24.111  27.729  0.00  0.00    +0.081 A 
ATOM     35  C   UNL     1      -8.967  23.890  26.355  0.00  0.00    +0.109 A 
ATOM     36  C   UNL     1      -8.971  22.595  25.852  0.00  0.00    +0.009 A 
BRANCH  35  37
ATOM     37  O   UNL     1      -8.851  24.945  25.508  0.00  0.00    -0.485 OA
ATOM     38  H   UNL     1      -8.541  25.757  25.931  0.00  0.00    +0.394 HD
ENDBRANCH  35  37
BRANCH  34  39
ATOM     39  O   UNL     1      -9.078  25.380  28.215  0.00  0.00    -0.483 OA
ATOM     40  H   UNL     1      -8.420  25.534  28.908  0.00  0.00    +0.390 HD
ENDBRANCH  34  39
ENDBRANCH  29  32
BRANCH  30  41
ATOM     41  C   UNL     1      -7.088  21.043  29.833  0.00  0.00    +0.238 C 
ATOM     42  N   UNL     1      -6.155  21.690  29.867  0.00  0.00    -0.395 NA
ENDBRANCH  30  41
ENDBRANCH  25  30
ENDBRANCH  24  26
ENDBRANCH  23  24
ENDBRANCH   1  23
TORSDOF 17
ENDMDL
MODEL 9
REMARK VINA RESULT:      -7.4      2.493      3.617
REMARK  Name = CHEMBL144760
REMARK  17 active torsions:
REMARK  status: ('A' for Active; 'I' for Inactive)
REMARK    1  A    between atoms: C2_2  and  C7_9
REMARK    2  A    between atoms: C4_4  and  O2_8
REMARK    3  A    between atoms: C5_5  and  O1_7
REMARK    4  A    between atoms: C8_10  and  C9_11
REMARK    5  A    between atoms: C8_10  and  C26_35
REMARK    6  A    between atoms: N1_13  and  C10_14
REMARK    7  A    between atoms: C10_14  and  C11_15
REMARK    8  A    between atoms: C11_15  and  C12_16
REMARK    9  A    between atoms: C12_16  and  C13_17
REMARK   10  A    between atoms: C13_17  and  C14_18
REMARK   11  A    between atoms: C14_18  and  C15_19
REMARK   12  A    between atoms: C15_19  and  N2_20
REMARK   13  A    between atoms: C16_21  and  C17_23
REMARK   14  A    between atoms: C17_23  and  C25_33
REMARK   15  A    between atoms: C18_24  and  C19_25
REMARK   16  A    between atoms: C21_27  and  O6_32
REMARK   17  A    between atoms: C22_28  and  O5_31
REMARK                            x       y       z     vdW  Elec       q    Type
REMARK                         _______ _______ _______ _____ _____    ______ ____
ROOT
ATOM      1  C   UNL     1      -9.426  14.124  32.694  0.00  0.00    +0.021 C 
ENDROOT
BRANCH   1   2
ATOM      2  C   UNL     1     -10.588  13.384  33.360  0.00  0.00    +0.021 C 
BRANCH   2   3
ATOM      3  C   UNL     1     -11.884  13.688  32.606  0.00  0.00    +0.008 C 
BRANCH   3   4
ATOM      4  C   UNL     1     -12.930  14.221  33.587  0.00  0.00    +0.265 C 
BRANCH   4   5
ATOM      5  N   UNL     1     -13.220  15.624  33.278  0.00  0.00    -0.725 N 
ATOM      6  H   UNL     1     -12.492  16.248  33.129  0.00  0.00    +0.401 HD
ATOM      7  C   UNL     1     -14.497  16.047  33.201  0.00  0.00    +0.575 C 
ATOM      8  O   UNL     1     -15.410  15.265  33.387  0.00  0.00    -0.526 OA
BRANCH   7   9
ATOM      9  C   UNL     1     -14.788  17.455  32.889  0.00  0.00    -0.129 C 
ATOM     10  C   UNL     1     -14.031  18.124  31.951  0.00  0.00    +0.244 C 
BRANCH  10  11
ATOM     11  C   UNL     1     -14.218  19.562  31.750  0.00  0.00    -0.101 A 
ATOM     12  C   UNL     1     -15.076  20.026  30.742  0.00  0.00    +0.033 A 
ATOM     13  C   UNL     1     -15.248  21.383  30.559  0.00  0.00    +0.081 A 
ATOM     14  C   UNL     1     -14.568  22.290  31.373  0.00  0.00    +0.109 A 
ATOM     15  C   UNL     1     -13.717  21.832  32.372  0.00  0.00    +0.009 A 
ATOM     16  C   UNL     1     -13.544  20.480  32.567  0.00  0.00    +0.077 A 
BRANCH  14  17
ATOM     17  O   UNL     1     -14.739  23.624  31.190  0.00  0.00    -0.485 OA
ATOM     18  H   UNL     1     -14.382  23.956  30.354  0.00  0.00    +0.394 HD
ENDBRANCH  14  17
BRANCH  13  19
ATOM     19  O   UNL     1     -16.079  21.836  29.583  0.00  0.00    -0.482 OA
ATOM     20  H   UNL     1     -16.628  21.149  29.183  0.00  0.00    +0.390 HD
ENDBRANCH  13  19
ENDBRANCH  10  11
BRANCH   9  21
ATOM     21  C   UNL     1     -15.857  18.131  33.560  0.00  0.00    +0.238 C 
ATOM     22  N   UNL     1     -16.706  18.667  34.092  0.00  0.00    -0.395 NA
ENDBRANCH   9  21
ENDBRANCH   7   9
ENDBRANCH   4   5
ENDBRANCH   3   4
ENDBRANCH   2   3
ENDBRANCH   1   2
BRANCH   1  23
ATOM     23  C   UNL     1      -9.968  15.306  31.889  0.00  0.00    +0.008 C 
BRANCH  23  24
ATOM     24  C   UNL     1      -8.976  16.469  31.959  0.00  0.00    +0.265 C 
BRANCH  24  26
ATOM     25  C   UNL     1      -8.776  18.599  30.791  0.00  0.00    +0.575 C 
ATOM     26  N   UNL     1      -9.569  17.656  31.337  0.00  0.00    -0.725 N 
ATOM     27  H   UNL     1     -10.533  17.762  31.319  0.00  0.00    +0.401 HD
ATOM     28  O   UNL     1      -7.567  18.464  30.814  0.00  0.00    -0.527 OA
BRANCH  25  30
ATOM     29  C   UNL     1     -10.705  20.080  30.369  0.00  0.00    +0.244 C 
ATOM     30  C   UNL     1      -9.373  19.790  30.166  0.00  0.00    -0.129 C 
BRANCH  29  32
ATOM     31  C   UNL     1     -12.164  20.905  28.535  0.00  0.00    +0.077 A 
ATOM     32  C   UNL     1     -11.334  21.178  29.632  0.00  0.00    -0.101 A 
ATOM     33  C   UNL     1     -11.109  22.507  30.021  0.00  0.00    +0.033 A 
ATOM     34  C   UNL     1     -11.705  23.536  29.323  0.00  0.00    +0.081 A 
ATOM     35  C   UNL     1     -12.530  23.255  28.233  0.00  0.00    +0.109 A 
ATOM     36  C   UNL     1     -12.754  21.940  27.845  0.00  0.00    +0.009 A 
BRANCH  35  37
ATOM     37  O   UNL     1     -13.115  24.271  27.547  0.00  0.00    -0.485 OA
ATOM     38  H   UNL     1     -13.420  24.025  26.663  0.00  0.00    +0.394 HD
ENDBRANCH  35  37
BRANCH  34  39
ATOM     39  O   UNL     1     -11.491  24.825  29.698  0.00  0.00    -0.483 OA
ATOM     40  H   UNL     1     -10.617  24.983  30.083  0.00  0.00    +0.390 HD
ENDBRANCH  34  39
ENDBRANCH  29  32
BRANCH  30  41
ATOM     41  C   UNL     1      -8.569  20.648  29.348  0.00  0.00    +0.238 C 
ATOM     42  N   UNL     1      -7.931  21.328  28.700  0.00  0.00    -0.395 NA
ENDBRANCH  30  41
ENDBRANCH  25  30
ENDBRANCH  24  26
ENDBRANCH  23  24
ENDBRANCH   1  23
TORSDOF 17
ENDMDL
